Circuit: * D:\Misc\TTGO-HiGrow\electronics\soil_sensor_analysis.asc

Limiting rise time of source v1 to 6e-008
Limiting fall time of source v1 to 6e-008
.OP point found by inspection.
.step c=1e-016
.step c=1.41421e-016
.step c=2e-016
.step c=2.82843e-016
.step c=4e-016
.step c=5.65685e-016
.step c=8e-016
.step c=1.13137e-015
.step c=1.6e-015
.step c=2.26274e-015
.step c=3.2e-015
.step c=4.52548e-015
.step c=6.4e-015
.step c=9.05097e-015
.step c=1.28e-014
.step c=1.81019e-014
.step c=2.56e-014
.step c=3.62039e-014
.step c=5.12e-014
.step c=7.24077e-014
.step c=1e-013


Measurement: hv
  step	MAX(v(humi))	FROM	TO
     1	2.69318	0	0.1
     2	2.69318	0	0.1
     3	2.69329	0	0.1
     4	2.69325	0	0.1
     5	2.69332	0	0.1
     6	2.69335	0	0.1
     7	2.69333	0	0.1
     8	2.69246	0	0.1
     9	2.69308	0	0.1
    10	2.69245	0	0.1
    11	2.69286	0	0.1
    12	2.69168	0	0.1
    13	2.69307	0	0.1
    14	2.69283	0	0.1
    15	2.69297	0	0.1
    16	2.69265	0	0.1
    17	2.69204	0	0.1
    18	2.69281	0	0.1
    19	2.69254	0	0.1
    20	2.6924	0	0.1
    21	2.69213	0	0.1


Date: Tue Dec 29 16:52:22 2020
Total elapsed time: 324.591 seconds.

tnom = 27
temp = 27
method = modified trap
totiter = 16321773
traniter = 16321773
tranpoints = 6898147
accept = 5308811
rejected = 1589336
matrix size = 4
fillins = 0
solver = Normal
Matrix Compiler1:       6 opcodes  0.0/0.0/[0.0]
Matrix Compiler2: off  [0.0]/0.1/0.1

